.model MbreakN-X NMOS vto=1 kp=15u 
*$
.model MbreakN-X1 NMOS vto=1 kp=15u 
*$
.model MbreakN-X2 NMOS vto=1 kp=15u 
*$
.model MbreakP-X PMOS vto=-1 kp=15u 
*$
.model MbreakP-X1 PMOS vto=-1 kp=15u 
*$
.model MbreakP-X2 PMOS vto=-1 kp=15u 
*$
